#---------------------------------------------------------------------------
#  CTI File converted from Solution Object
#---------------------------------------------------------------------------

units(length = "cm", time = "s", quantity = "mol", act_energy = "cal/mol")

ideal_gas(name = "gas",
     elements = "H O C N",
     species = """ H2 H O O2 OH H2O HO2 H2O2 CH3 CH4 CO CO2 CH2O CH3OH
                 C2H2 C2H4 C2H6 NO NO2 N2O HCN N2 """,
#    species_qss = """ CH CH2 CH2(S) HCO CH3O C2H3 C2H5 N NH NH2 NNH HNO
#                 HOCN HNCO """,
     reactions = "all",
     kinetics = "custom",
     initial_state = state(temperature = 3.000000E+02, pressure= 1.013250E+05)   )

#---------------------------------------------------------------------------
#  Species data
#---------------------------------------------------------------------------

species(name = "H2",
    atoms = "H:2",
    thermo = (
       NASA(   [300.0, 1000.0], [2.344331120e+00, 7.980520750e-03,
                -1.947815100e-05, 2.015720940e-08,
                -7.376117610e-12,
                -9.179351730e+02, 6.830102380e-01]  ),
       NASA(   [1000.0, 5000.0], [3.337279200e+00, -4.940247310e-05,
                4.994567780e-07, -1.795663940e-10,
                2.002553760e-14, -9.501589220e+02,
                -3.205023310e+00]  )
               ),
    transport = gas_transport(
                   geom = "linear",
                   diam = 2.9200000000000004,
                   well_depth = 38.0,
                   polar = 0.7900000000000001,
                   rot_relax = 280.0)
        )

species(name = "H",
    atoms = "H:1",
    thermo = (
       NASA(   [300.0, 1000.0], [2.500000000e+00, 7.053328190e-13,
                -1.995919640e-15, 2.300816320e-18,
                -9.277323320e-22, 2.547365990e+04,
                -4.466828530e-01]  ),
       NASA(   [1000.0, 5000.0], [2.500000010e+00, -2.308429730e-11,
                1.615619480e-14, -4.735152350e-18,
                4.981973570e-22, 2.547365990e+04,
                -4.466829140e-01]  )
               ),
    transport = gas_transport(
                   geom = "atom",
                   diam = 2.05,
                   well_depth = 145.0,
                   polar = 0.0,
                   rot_relax = 0.0)
        )

species(name = "O",
    atoms = "O:1",
    thermo = (
       NASA(   [300.0, 1000.0], [3.168267100e+00, -3.279318840e-03,
                6.643063960e-06, -6.128066240e-09,
                2.112659710e-12, 2.912225920e+04,
                2.051933460e+00]  ),
       NASA(   [1000.0, 5000.0], [2.569420780e+00, -8.597411370e-05,
                4.194845890e-08, -1.001777990e-11,
                1.228336910e-15, 2.921757910e+04,
                4.784338640e+00]  )
               ),
    transport = gas_transport(
                   geom = "atom",
                   diam = 2.7500000000000004,
                   well_depth = 80.0,
                   polar = 0.0,
                   rot_relax = 0.0)
        )

species(name = "O2",
    atoms = "O:2",
    thermo = (
       NASA(   [300.0, 1000.0], [3.782456360e+00, -2.996734160e-03,
                9.847302010e-06, -9.681295090e-09,
                3.243728370e-12, -1.063943560e+03,
                3.657675730e+00]  ),
       NASA(   [1000.0, 5000.0], [3.282537840e+00, 1.483087540e-03,
                -7.579666690e-07, 2.094705550e-10,
                -2.167177940e-14,
                -1.088457720e+03, 5.453231290e+00]  )
               ),
    transport = gas_transport(
                   geom = "linear",
                   diam = 3.458,
                   well_depth = 107.4,
                   polar = 1.6,
                   rot_relax = 3.8)
        )

species(name = "OH",
    atoms = "H:1  O:1",
    thermo = (
       NASA(   [300.0, 1000.0], [4.125305610e+00, -3.225449390e-03,
                6.527646910e-06, -5.798536430e-09,
                2.062373790e-12, 3.381538120e+03,
                -6.904329600e-01]  ),
       NASA(   [1000.0, 5000.0], [2.864728860e+00, 1.056504480e-03,
                -2.590827580e-07, 3.052186740e-11,
                -1.331958760e-15, 3.718857740e+03,
                5.701640730e+00]  )
               ),
    transport = gas_transport(
                   geom = "linear",
                   diam = 2.7500000000000004,
                   well_depth = 80.0,
                   polar = 0.0,
                   rot_relax = 0.0)
        )

species(name = "H2O",
    atoms = "H:2  O:1",
    thermo = (
       NASA(   [300.0, 1000.0], [4.198640560e+00, -2.036434100e-03,
                6.520402110e-06, -5.487970620e-09,
                1.771978170e-12, -3.029372670e+04,
                -8.490322080e-01]  ),
       NASA(   [1000.0, 5000.0], [3.033992490e+00, 2.176918040e-03,
                -1.640725180e-07,
                -9.704198700e-11, 1.682009920e-14,
                -3.000429710e+04, 4.966770100e+00]  )
               ),
    transport = gas_transport(
                   geom = "nonlinear",
                   diam = 2.6050000000000004,
                   well_depth = 572.4,
                   polar = 0.0,
                   rot_relax = 4.0,
                   dipole= 1.8440005262719967)
        )

species(name = "HO2",
    atoms = "H:1  O:2",
    thermo = (
       NASA(   [300.0, 1000.0], [4.301798010e+00, -4.749120510e-03,
                2.115828910e-05, -2.427638940e-08,
                9.292251240e-12, 2.948080400e+02,
                3.716662450e+00]  ),
       NASA(   [1000.0, 5000.0], [4.017210900e+00, 2.239820130e-03,
                -6.336581500e-07, 1.142463700e-10,
                -1.079085350e-14, 1.118567130e+02,
                3.785102150e+00]  )
               ),
    transport = gas_transport(
                   geom = "nonlinear",
                   diam = 3.458,
                   well_depth = 107.4,
                   polar = 0.0,
                   rot_relax = 1.0)
        )

species(name = "H2O2",
    atoms = "H:2  O:2",
    thermo = (
       NASA(   [300.0, 1000.0], [4.276112690e+00, -5.428224170e-04,
                1.673357010e-05, -2.157708130e-08,
                8.624543630e-12, -1.770258210e+04,
                3.435050740e+00]  ),
       NASA(   [1000.0, 5000.0], [4.165002850e+00, 4.908316940e-03,
                -1.901392250e-06, 3.711859860e-10,
                -2.879083050e-14,
                -1.786178770e+04, 2.916156620e+00]  )
               ),
    transport = gas_transport(
                   geom = "nonlinear",
                   diam = 3.458,
                   well_depth = 107.4,
                   polar = 0.0,
                   rot_relax = 3.8)
        )

species(name = "CH",
    atoms = "C:1  H:1",
    thermo = (
       NASA(   [300.0, 1000.0], [3.489816650e+00, 3.238355410e-04,
                -1.688990650e-06, 3.162173270e-09,
                -1.406090670e-12, 7.079729340e+04,
                2.084011080e+00]  ),
       NASA(   [1000.0, 5000.0], [2.878464730e+00, 9.709136810e-04,
                1.444456550e-07, -1.306878490e-10,
                1.760793830e-14, 7.101243640e+04,
                5.484979990e+00]  )
               ),
    transport = gas_transport(
                   geom = "linear",
                   diam = 2.7500000000000004,
                   well_depth = 80.0,
                   polar = 0.0,
                   rot_relax = 0.0)
        )

species(name = "CH2",
    atoms = "C:1  H:2",
    thermo = (
       NASA(   [200.0, 1000.0], [3.762678670e+00, 9.688721430e-04,
                2.794898410e-06, -3.850911530e-09,
                1.687417190e-12, 4.600404010e+04,
                1.562531850e+00]  ),
       NASA(   [1000.0, 5000.0], [2.874101130e+00, 3.656392920e-03,
                -1.408945970e-06, 2.601795490e-10,
                -1.877275670e-14, 4.626360400e+04,
                6.171193240e+00]  )
               ),
    transport = gas_transport(
                   geom = "linear",
                   diam = 3.8,
                   well_depth = 144.0,
                   polar = 0.0,
                   rot_relax = 0.0)
        )

species(name = "CH2(S)",
    atoms = "C:1  H:2",
    thermo = (
       NASA(   [200.0, 1000.0], [4.198604110e+00, -2.366614190e-03,
                8.232962200e-06, -6.688159810e-09,
                1.943147370e-12, 5.049681630e+04,
                -7.691189670e-01]  ),
       NASA(   [1000.0, 5000.0], [2.292038420e+00, 4.655886370e-03,
                -2.011919470e-06, 4.179060000e-10,
                -3.397163650e-14, 5.092599970e+04,
                8.626501690e+00]  )
               ),
    transport = gas_transport(
                   geom = "linear",
                   diam = 3.8,
                   well_depth = 144.0,
                   polar = 0.0,
                   rot_relax = 0.0)
        )

species(name = "CH3",
    atoms = "C:1  H:3",
    thermo = (
       NASA(   [300.0, 1000.0], [3.673590400e+00, 2.010951750e-03,
                5.730218560e-06, -6.871174250e-09,
                2.543857340e-12, 1.644499880e+04,
                1.604564330e+00]  ),
       NASA(   [1000.0, 5000.0], [2.285717720e+00, 7.239900370e-03,
                -2.987143480e-06, 5.956846440e-10,
                -4.671543940e-14, 1.677558430e+04,
                8.480071790e+00]  )
               ),
    transport = gas_transport(
                   geom = "linear",
                   diam = 3.8,
                   well_depth = 144.0,
                   polar = 0.0,
                   rot_relax = 0.0)
        )

species(name = "CH4",
    atoms = "C:1  H:4",
    thermo = (
       NASA(   [300.0, 1000.0], [5.149876130e+00, -1.367097880e-02,
                4.918005990e-05, -4.847430260e-08,
                1.666939560e-11, -1.024664760e+04,
                -4.641303760e+00]  ),
       NASA(   [1000.0, 5000.0], [7.485149500e-02, 1.339094670e-02,
                -5.732858090e-06, 1.222925350e-09,
                -1.018152300e-13,
                -9.468344590e+03, 1.843731800e+01]  )
               ),
    transport = gas_transport(
                   geom = "nonlinear",
                   diam = 3.7460000000000004,
                   well_depth = 141.4,
                   polar = 2.6,
                   rot_relax = 13.0)
        )

species(name = "CO",
    atoms = "C:1  O:1",
    thermo = (
       NASA(   [300.0, 1000.0], [3.579533470e+00, -6.103536800e-04,
                1.016814330e-06, 9.070058840e-10,
                -9.044244990e-13,
                -1.434408600e+04, 3.508409280e+00]  ),
       NASA(   [1000.0, 5000.0], [2.715185610e+00, 2.062527430e-03,
                -9.988257710e-07, 2.300530080e-10,
                -2.036477160e-14,
                -1.415187240e+04, 7.818687720e+00]  )
               ),
    transport = gas_transport(
                   geom = "linear",
                   diam = 3.65,
                   well_depth = 98.1,
                   polar = 1.9500000000000002,
                   rot_relax = 1.8)
        )

species(name = "CO2",
    atoms = "C:1  O:2",
    thermo = (
       NASA(   [300.0, 1000.0], [2.356773520e+00, 8.984596770e-03,
                -7.123562690e-06, 2.459190220e-09,
                -1.436995480e-13,
                -4.837196970e+04, 9.901052220e+00]  ),
       NASA(   [1000.0, 5000.0], [3.857460290e+00, 4.414370260e-03,
                -2.214814040e-06, 5.234901880e-10,
                -4.720841640e-14,
                -4.875916600e+04, 2.271638060e+00]  )
               ),
    transport = gas_transport(
                   geom = "linear",
                   diam = 3.763,
                   well_depth = 244.0,
                   polar = 2.6500000000000004,
                   rot_relax = 2.1)
        )

species(name = "HCO",
    atoms = "C:1  H:1  O:1",
    thermo = (
       NASA(   [300.0, 1000.0], [4.221185840e+00, -3.243925320e-03,
                1.377994460e-05, -1.331440930e-08,
                4.337688650e-12, 3.839564960e+03,
                3.394372430e+00]  ),
       NASA(   [1000.0, 5000.0], [2.772174380e+00, 4.956955260e-03,
                -2.484456130e-06, 5.891617780e-10,
                -5.335087110e-14, 4.011918150e+03,
                9.798344920e+00]  )
               ),
    transport = gas_transport(
                   geom = "nonlinear",
                   diam = 3.59,
                   well_depth = 498.0,
                   polar = 0.0,
                   rot_relax = 0.0)
        )

species(name = "CH2O",
    atoms = "C:1  H:2  O:1",
    thermo = (
       NASA(   [300.0, 1000.0], [4.793723150e+00, -9.908333690e-03,
                3.732200080e-05, -3.792852610e-08,
                1.317726520e-11, -1.430895670e+04,
                6.028129000e-01]  ),
       NASA(   [1000.0, 5000.0], [1.760690080e+00, 9.200000820e-03,
                -4.422588130e-06, 1.006412120e-09,
                -8.838556400e-14,
                -1.399583230e+04, 1.365632300e+01]  )
               ),
    transport = gas_transport(
                   geom = "nonlinear",
                   diam = 3.59,
                   well_depth = 498.0,
                   polar = 0.0,
                   rot_relax = 2.0)
        )

species(name = "CH3O",
    atoms = "C:1  H:3  O:1",
    thermo = (
       NASA(   [300.0, 1000.0], [3.711805020e+00, -2.804633060e-03,
                3.765509710e-05, -4.730720890e-08,
                1.865884200e-11, 1.307724840e+03,
                6.572408640e+00]  ),
       NASA(   [1000.0, 5000.0], [4.757792380e+00, 7.441424740e-03,
                -2.697051760e-06, 4.380905040e-10,
                -2.635370980e-14, 3.901391640e+02,
                -1.966800280e+00]  )
               ),
    transport = gas_transport(
                   geom = "nonlinear",
                   diam = 3.6900000000000004,
                   well_depth = 417.0,
                   polar = 0.0,
                   rot_relax = 2.0,
                   dipole= 1.7000004851748343)
        )

species(name = "CH3OH",
    atoms = "C:1  H:4  O:1",
    thermo = (
       NASA(   [300.0, 1000.0], [5.715395820e+00, -1.523091290e-02,
                6.524411550e-05, -7.108068890e-08,
                2.613526980e-11, -2.564276560e+04,
                -1.504098230e+00]  ),
       NASA(   [1000.0, 5000.0], [1.789707910e+00, 1.409382920e-02,
                -6.365008350e-06, 1.381710850e-09,
                -1.170602200e-13,
                -2.537487470e+04, 1.450236230e+01]  )
               ),
    transport = gas_transport(
                   geom = "nonlinear",
                   diam = 3.6260000000000003,
                   well_depth = 481.8,
                   polar = 0.0,
                   rot_relax = 1.0)
        )

species(name = "C2H2",
    atoms = "C:2  H:2",
    thermo = (
       NASA(   [300.0, 1000.0], [8.086810940e-01, 2.336156290e-02,
                -3.551718150e-05, 2.801524370e-08,
                -8.500729740e-12, 2.642898070e+04,
                1.393970510e+01]  ),
       NASA(   [1000.0, 5000.0], [4.147569640e+00, 5.961666640e-03,
                -2.372948520e-06, 4.674121710e-10,
                -3.612352130e-14, 2.593599920e+04,
                -1.230281210e+00]  )
               ),
    transport = gas_transport(
                   geom = "linear",
                   diam = 3.7210000000000005,
                   well_depth = 265.3,
                   polar = 0.0,
                   rot_relax = 2.5)
        )

species(name = "C2H3",
    atoms = "C:2  H:3",
    thermo = (
       NASA(   [300.0, 1000.0], [3.212466450e+00, 1.514791620e-03,
                2.592094120e-05, -3.576578470e-08,
                1.471508730e-11, 3.485984680e+04,
                8.510540250e+00]  ),
       NASA(   [1000.0, 5000.0], [3.016724000e+00, 1.033022920e-02,
                -4.680823490e-06, 1.017632880e-09,
                -8.626070410e-14, 3.461287390e+04,
                7.787323780e+00]  )
               ),
    transport = gas_transport(
                   geom = "nonlinear",
                   diam = 3.7210000000000005,
                   well_depth = 265.3,
                   polar = 0.0,
                   rot_relax = 1.0)
        )

species(name = "C2H4",
    atoms = "C:2  H:4",
    thermo = (
       NASA(   [300.0, 1000.0], [3.959201480e+00, -7.570522470e-03,
                5.709902920e-05, -6.915887530e-08,
                2.698843730e-11, 5.089775930e+03,
                4.097330960e+00]  ),
       NASA(   [1000.0, 5000.0], [2.036111160e+00, 1.464541510e-02,
                -6.710779150e-06, 1.472229230e-09,
                -1.257060610e-13, 4.939886140e+03,
                1.030536930e+01]  )
               ),
    transport = gas_transport(
                   geom = "nonlinear",
                   diam = 3.496,
                   well_depth = 238.4,
                   polar = 0.0,
                   rot_relax = 1.5)
        )

species(name = "C2H5",
    atoms = "C:2  H:5",
    thermo = (
       NASA(   [300.0, 1000.0], [4.306465680e+00, -4.186588920e-03,
                4.971428070e-05, -5.991266060e-08,
                2.305090040e-11, 1.284162650e+04,
                4.707209240e+00]  ),
       NASA(   [1000.0, 5000.0], [1.954656420e+00, 1.739727220e-02,
                -7.982066680e-06, 1.752176890e-09,
                -1.496415760e-13, 1.285752000e+04,
                1.346243430e+01]  )
               ),
    transport = gas_transport(
                   geom = "nonlinear",
                   diam = 4.35,
                   well_depth = 247.49999999999997,
                   polar = 0.0,
                   rot_relax = 1.5)
        )

species(name = "C2H6",
    atoms = "C:2  H:6",
    thermo = (
       NASA(   [300.0, 1000.0], [4.291424920e+00, -5.501542700e-03,
                5.994382880e-05, -7.084662850e-08,
                2.686857710e-11, -1.152220550e+04,
                2.666823160e+00]  ),
       NASA(   [1000.0, 5000.0], [1.071881500e+00, 2.168526770e-02,
                -1.002560670e-05, 2.214120010e-09,
                -1.900028900e-13,
                -1.142639320e+04, 1.511561070e+01]  )
               ),
    transport = gas_transport(
                   geom = "nonlinear",
                   diam = 4.35,
                   well_depth = 247.49999999999997,
                   polar = 0.0,
                   rot_relax = 1.5)
        )

species(name = "N",
    atoms = "N:1",
    thermo = (
       NASA(   [300.0, 1000.0], [2.503071000e+00, -2.180018000e-05,
                5.420529000e-08, -5.647560000e-11,
                2.099904000e-14, 5.609890000e+04,
                4.167566000e+00]  ),
       NASA(   [1000.0, 5000.0], [2.450268000e+00, 1.066145800e-04,
                -7.465337000e-08, 1.879652000e-11,
                -1.025983900e-15, 5.611604000e+04,
                4.448758000e+00]  )
               ),
    transport = gas_transport(
                   geom = "atom",
                   diam = 3.2980000000000005,
                   well_depth = 71.4,
                   polar = 0.0,
                   rot_relax = 0.0)
        )

species(name = "NH",
    atoms = "H:1  N:1",
    thermo = (
       NASA(   [200.0, 1000.0], [3.492908400e+00, 3.117919700e-04,
                -1.489048400e-06, 2.481644200e-09,
                -1.035696700e-12, 4.189429400e+04,
                1.848327700e+00]  ),
       NASA(   [1000.0, 6000.0], [2.783692900e+00, 1.329842900e-03,
                -4.247804700e-07, 7.834850400e-11,
                -5.504447000e-15, 4.213451400e+04,
                5.740779800e+00]  )
               ),
    transport = gas_transport(
                   geom = "linear",
                   diam = 2.6500000000000004,
                   well_depth = 80.0,
                   polar = 0.0,
                   rot_relax = 4.0)
        )

species(name = "NH2",
    atoms = "H:2  N:1",
    thermo = (
       NASA(   [200.0, 1000.0], [4.205560100e+00, -2.135528200e-03,
                7.268202100e-06, -5.930279900e-09,
                1.806721800e-12, 2.153522300e+04,
                -1.466323100e-01]  ),
       NASA(   [1000.0, 6000.0], [2.847661100e+00, 3.142845300e-03,
                -8.986655700e-07, 1.303235700e-10,
                -7.488535600e-15, 2.182391600e+04,
                6.471813300e+00]  )
               ),
    transport = gas_transport(
                   geom = "nonlinear",
                   diam = 2.6500000000000004,
                   well_depth = 80.0,
                   polar = 2.2600000000000002,
                   rot_relax = 4.0)
        )

species(name = "NNH",
    atoms = "H:1  N:2",
    thermo = (
       NASA(   [200.0, 1000.0], [4.344692700e+00, -4.849707200e-03,
                2.005945900e-05, -2.172646400e-08,
                7.946953900e-12, 2.879197300e+04,
                2.977941000e+00]  ),
       NASA(   [1000.0, 6000.0], [3.766754400e+00, 2.891508200e-03,
                -1.041662000e-06, 1.684259400e-10,
                -1.009189600e-14, 2.865069700e+04,
                4.470506700e+00]  )
               ),
    transport = gas_transport(
                   geom = "nonlinear",
                   diam = 3.798,
                   well_depth = 71.4,
                   polar = 0.0,
                   rot_relax = 1.0)
        )

species(name = "NO",
    atoms = "N:1  O:1",
    thermo = (
       NASA(   [200.0, 1000.0], [4.218598960e+00, -4.639881240e-03,
                1.104430490e-05, -9.340555070e-09,
                2.805548740e-12, 9.845099640e+03,
                2.280610010e+00]  ),
       NASA(   [1000.0, 6000.0], [3.260712340e+00, 1.191011350e-03,
                -4.291226460e-07, 6.944814630e-11,
                -4.032956810e-15, 9.921431320e+03,
                6.369005180e+00]  )
               ),
    transport = gas_transport(
                   geom = "linear",
                   diam = 3.621,
                   well_depth = 97.53,
                   polar = 1.76,
                   rot_relax = 4.0)
        )

species(name = "NO2",
    atoms = "N:1  O:2",
    thermo = (
       NASA(   [200.0, 1000.0], [3.944031200e+00, -1.585429000e-03,
                1.665781200e-05, -2.047542600e-08,
                7.835056400e-12, 2.896618000e+03,
                6.311991900e+00]  ),
       NASA(   [1000.0, 6000.0], [4.884754000e+00, 2.172395500e-03,
                -8.280690900e-07, 1.574751000e-10,
                -1.051089500e-14, 2.316498200e+03,
                -1.174169500e-01]  )
               ),
    transport = gas_transport(
                   geom = "nonlinear",
                   diam = 3.5000000000000004,
                   well_depth = 200.0,
                   polar = 0.0,
                   rot_relax = 1.0)
        )

species(name = "N2O",
    atoms = "N:2  O:1",
    thermo = (
       NASA(   [200.0, 1000.0], [2.257150200e+00, 1.130472800e-02,
                -1.367131900e-05, 9.681980300e-09,
                -2.930718200e-12, 8.741774600e+03,
                1.075799200e+01]  ),
       NASA(   [1000.0, 6000.0], [4.823072900e+00, 2.627025100e-03,
                -9.585087200e-07, 1.600071200e-10,
                -9.775230200e-15, 8.073404700e+03,
                -2.201720800e+00]  )
               ),
    transport = gas_transport(
                   geom = "linear",
                   diam = 3.8280000000000003,
                   well_depth = 232.4,
                   polar = 0.0,
                   rot_relax = 1.0)
        )

species(name = "HNO",
    atoms = "H:1  N:1  O:1",
    thermo = (
       NASA(   [200.0, 1000.0], [4.535247500e+00, -5.685397200e-03,
                1.851985000e-05, -1.718827300e-08,
                5.558320700e-12, 1.103988100e+04,
                1.743191900e+00]  ),
       NASA(   [1000.0, 3500.0], [3.165522900e+00, 3.000086200e-03,
                -3.943661900e-07,
                -3.857581500e-11, 7.080718900e-15,
                1.119442600e+04, 7.647783300e+00]  )
               ),
    transport = gas_transport(
                   geom = "nonlinear",
                   diam = 3.492,
                   well_depth = 116.7,
                   polar = 0.0,
                   rot_relax = 1.0)
        )

species(name = "HCN",
    atoms = "C:1  H:1  N:1",
    thermo = (
       NASA(   [200.0, 1000.0], [2.258988500e+00, 1.005117000e-02,
                -1.335176300e-05, 1.009234900e-08,
                -3.008902900e-12, 1.521585300e+04,
                8.916441800e+00]  ),
       NASA(   [1000.0, 6000.0], [3.802239200e+00, 3.146422700e-03,
                -1.063218500e-06, 1.661975700e-10,
                -9.799756700e-15, 1.491051200e+04,
                1.575460100e+00]  )
               ),
    transport = gas_transport(
                   geom = "linear",
                   diam = 3.63,
                   well_depth = 569.0,
                   polar = 0.0,
                   rot_relax = 1.0)
        )

species(name = "HOCN",
    atoms = "C:1  H:1  N:1  O:1",
    thermo = (
       NASA(   [300.0, 1368.0], [3.786049520e+00, 6.886679220e-03,
                -3.214878640e-06, 5.171957670e-10,
                1.193607880e-14, -2.826984000e+03,
                5.632921620e+00]  ),
       NASA(   [1368.0, 5000.0], [5.897848850e+00, 3.167893930e-03,
                -1.118010640e-06, 1.772431440e-10,
                -1.043391770e-14,
                -3.706533310e+03,
                -6.181678250e+00]  )
               ),
    transport = gas_transport(
                   geom = "nonlinear",
                   diam = 3.8280000000000003,
                   well_depth = 232.4,
                   polar = 0.0,
                   rot_relax = 1.0)
        )

species(name = "HNCO",
    atoms = "C:1  H:1  N:1  O:1",
    thermo = (
       NASA(   [200.0, 1000.0], [2.243218800e+00, 1.449134900e-02,
                -1.523617400e-05, 8.334585100e-09,
                -1.710403300e-12,
                -1.523370800e+04, 1.215732100e+01]  ),
       NASA(   [1000.0, 6000.0], [5.293689400e+00, 4.030777000e-03,
                -1.413058900e-06, 2.244556200e-10,
                -1.328768300e-14,
                -1.597348900e+04,
                -3.086471000e+00]  )
               ),
    transport = gas_transport(
                   geom = "nonlinear",
                   diam = 3.8280000000000003,
                   well_depth = 232.4,
                   polar = 0.0,
                   rot_relax = 1.0)
        )

species(name = "N2",
    atoms = "N:2",
    thermo = (
       NASA(   [300.0, 1000.0], [3.298677000e+00, 1.408240400e-03,
                -3.963222000e-06, 5.641515000e-09,
                -2.444854000e-12,
                -1.020899900e+03, 3.950372000e+00]  ),
       NASA(   [1000.0, 5000.0], [2.926640000e+00, 1.487976800e-03,
                -5.684760000e-07, 1.009703800e-10,
                -6.753351000e-15,
                -9.227977000e+02, 5.980528000e+00]  )
               ),
    transport = gas_transport(
                   geom = "linear",
                   diam = 3.621,
                   well_depth = 97.53,
                   polar = 1.76,
                   rot_relax = 4.0)
        )

#---------------------------------------------------------------------------
#  Reaction Data
#---------------------------------------------------------------------------

# Dummy reaction
reaction('C2H6 + 3.5 O2 => 2.0 CO2 + 3.0 H2O ', [0.0, 0.0, 0.0])

##  Reaction 1
#reaction( "H2 + O <=> H + OH", [5.000000E+04, 2.670000E+00, 6.290000E+03])

##  Reaction 2
#reaction( "HO2 + O <=> O2 + OH", [2.000000E+13, 0.000000E+00, 0.000000E+00])

##  Reaction 3
#reaction( "CH + O <=> CO + H", [5.700000E+13, 0.000000E+00, 0.000000E+00])

##  Reaction 4
#reaction( "CH2 + O <=> H + HCO", [8.000000E+13, 0.000000E+00, 0.000000E+00])

##  Reaction 5
#reaction( "CH3 + O <=> CH2O + H", [8.430000E+13, 0.000000E+00, 0.000000E+00])

##  Reaction 6
#reaction( "CH4 + O <=> CH3 + OH", [1.020000E+09, 1.500000E+00, 8.600000E+03])

##  Reaction 7
#reaction( "HCO + O <=> CO2 + H", [3.000000E+13, 0.000000E+00, 0.000000E+00])

##  Reaction 8
#reaction( "CH2O + O <=> HCO + OH", [3.900000E+13, 0.000000E+00, 3.540000E+03])

##  Reaction 9
#reaction( "C2H2 + O <=> CH2 + CO", [1.020000E+07, 2.000000E+00, 1.900000E+03])

##  Reaction 10
#reaction( "C2H4 + O <=> CH3 + HCO", [1.920000E+07, 1.830000E+00, 2.200000E+02])

##  Reaction 11
#reaction( "C2H5 + O <=> CH2O + CH3", [1.320000E+14, 0.000000E+00, 0.000000E+00])

##  Reaction 12
#reaction( "C2H6 + O <=> C2H5 + OH", [8.980000E+07, 1.920000E+00, 5.690000E+03])

##  Reaction 13
#reaction( "CH2O + O2 <=> HCO + HO2", [1.000000E+14, 0.000000E+00, 4.000000E+04])

##  Reaction 14
#three_body_reaction( "H + O2 + M <=> HO2 + M",  [2.800000E+18, -8.600000E-01, 0.000000E+00],
#       efficiencies = "CO:0.75  CO2:1.5  H2O:0.0  N2:0.0  O2:0.0")

##  Reaction 15
#reaction( "H + 2 O2 <=> HO2 + O2", [3.000000E+20, -1.720000E+00, 0.000000E+00])

##  Reaction 16
#reaction( "H + H2O + O2 <=> H2O + HO2", [9.380000E+18, -7.600000E-01, 0.000000E+00])

##  Reaction 17
#reaction( "H + N2 + O2 <=> HO2 + N2", [3.750000E+20, -1.720000E+00, 0.000000E+00])

##  Reaction 18
#reaction( "H + O2 <=> O + OH", [8.300000E+13, 0.000000E+00, 1.441300E+04])

##  Reaction 19
#reaction( "2 H + H2O <=> H2 + H2O", [6.000000E+19, -1.250000E+00, 0.000000E+00])

##  Reaction 20
#three_body_reaction( "H + OH + M <=> H2O + M",  [2.200000E+22, -2.000000E+00, 0.000000E+00],
#       efficiencies = "CH4:2.0  H2O:3.65")

##  Reaction 21
#reaction( "H + HO2 <=> H2O + O", [3.970000E+12, 0.000000E+00, 6.710000E+02])

##  Reaction 22
#reaction( "H + HO2 <=> H2 + O2", [2.800000E+13, 0.000000E+00, 1.068000E+03])

##  Reaction 23
#reaction( "H + HO2 <=> 2 OH", [1.340000E+14, 0.000000E+00, 6.350000E+02])

##  Reaction 24
#falloff_reaction( "CH2 + H (+M) <=> CH3 (+M)",
#        kf = [2.500000E+16, -8.000000E-01, 0.000000E+00],
#        kf0   = [3.200000E+27, -3.140000E+00, 1.230000E+03],
#        efficiencies = "CH4:2.0  CO:1.5  CO2:2.0  H2O:6.0",
#        falloff = Troe(A = 0.68, T3 = 78.0, T1 = 1995.0, T2 = 5590.0)       )

##  Reaction 25
#reaction( "CH2(S) + H <=> CH + H2", [3.000000E+13, 0.000000E+00, 0.000000E+00])

##  Reaction 26